LAMMPS (29 Oct 2020)
# bulk Cu lattice

variable	x index 1
variable	y index 1
variable	z index 1

variable	xx equal 20*$x
variable	xx equal 20*1
variable	yy equal 20*$y
variable	yy equal 20*1
variable	zz equal 20*$z
variable	zz equal 20*1

units		metal
atom_style	atomic

lattice		fcc 3.615
Lattice spacing in x,y,z = 3.6150000 3.6150000 3.6150000
region		box block 0 20 0 20 0 20
create_box	1 box
Created orthogonal box = (0.0000000 0.0000000 0.0000000) to (72.300000 72.300000 72.300000)
create_atoms	1 box
Created 32000 atoms

pair_style	eam
pair_coeff	1 1 Cu_u3.eam
Reading eam potential file Cu_u3.eam with DATE: 2007-06-11

velocity	all create 1600.0 376847 loop geom

neighbor	1.0 bin
neigh_modify    every 1 delay 5 check yes

fix		1 all nve

timestep	0.005
thermo		50

run		5000
  update every 1 steps, delay 5 steps, check yes
Step Temp E_pair E_mol TotEng Press
0         1600      -113280            0   -106662.09    18703.573
Averages over the last 51 of 101 rows, steps 2500 to 5000:
Temp E_pair E_mol TotEng Press
797.945 -109940 0 -106640 51543
Loop time of 7.61747 on 40 procs for 5000 steps with 32000 atoms
